<?xml version="1.0" encoding="UTF-8"?>

<!-- generated on Thu 12 Mar 2020 03:49:12 PM EDT by Eclipse SUMO netedit Version 1.5.0
<configuration xmlns:xsi="http://www.w3.org/2001/XMLSchema-instance" xsi:noNamespaceSchemaLocation="http://sumo.dlr.de/xsd/netconvertConfiguration.xsd">

    <input>
        <sumo-net-file value="carrefour.net.xml"/>
    </input>

    <output>
        <output-file value="carrefour.net.xml"/>
    </output>

    <processing>
        <geometry.min-radius.fix.railways value="false"/>
        <geometry.max-grade.fix value="false"/>
        <offset.disable-normalization value="true"/>
        <lefthand value="false"/>
    </processing>

    <junctions>
        <no-internal-links value="true"/>
        <no-turnarounds value="true"/>
        <junctions.corner-detail value="5"/>
        <junctions.limit-turn-speed value="5.5"/>
        <rectangular-lane-cut value="false"/>
    </junctions>

    <pedestrian>
        <walkingareas value="false"/>
    </pedestrian>

    <netedit>
        <route-files value="/home/nicolas/tmp/sumo/carrefour.rou.xml"/>
    </netedit>

    <report>
        <aggregate-warnings value="5"/>
    </report>

</configuration>
-->

<routes xmlns:xsi="http://www.w3.org/2001/XMLSchema-instance" xsi:noNamespaceSchemaLocation="http://sumo.dlr.de/xsd/routes_file.xsd">
  <routeDistribution id="inwest">
    <route edges="inwest outeast" color="yellow" id="route_0" probability="3"/>
    <route edges="inwest outnorth" color="yellow" id="route_1" probability="1"/>
    <route edges="inwest outsouth" color="yellow" id="route_2" probability="1"/>
  </routeDistribution>
  <routeDistribution id="insouth">
    <route edges="insouth outnorth" color="red" id="route_3" probability="3"/>
    <route edges="insouth outwest" color="red" id="route_4" probability="3"/>
    <route edges="insouth outeast" color="red" id="route_5" probability="3"/>
  </routeDistribution>
  <routeDistribution id="ineast">
    <route edges="ineast outwest" color="blue" id="route_6" probability="3"/>
    <route edges="ineast outsouth" color="blue" id="route_7" probability="3"/>
    <route edges="ineast outnorth" color="blue" id="route_8" probability="3"/>
  </routeDistribution>
  <routeDistribution id="innorth">
    <route edges="innorth outsouth" color="green" id="route_9" probability="3"/>
    <route edges="innorth outwest" color="green" id="route_10" probability="3"/>
    <route edges="innorth outeast" color="green" id="route_11" probability="3"/>
  </routeDistribution>
  <flow id="flow0" route="innorth" begin="0" vehsPerHour="500"/>
  <flow id="flow1" route="insouth" begin="0" vehsPerHour="500"/>
  <flow id="flow2" route="inwest" begin="0" vehsPerHour="200"/>
  <flow id="flow3" route="ineast" begin="0" vehsPerHour="300"/>
</routes>
