<?xml version="1.0" encoding="UTF-8"?>

<!-- generated on Thu Mar 12 16:01:00 2020 by Eclipse SUMO netconvert Version 1.5.0
<configuration xmlns:xsi="http://www.w3.org/2001/XMLSchema-instance" xsi:noNamespaceSchemaLocation="http://sumo.dlr.de/xsd/netconvertConfiguration.xsd">

    <input>
        <node-files value="carrefour.nod.xml"/>
        <edge-files value="carrefour.edg.xml"/>
    </input>

    <output>
        <output-file value="carrefour.net.xml"/>
    </output>

    <junctions>
        <no-turnarounds value="true"/>
    </junctions>

    <report>
        <aggregate-warnings value="5"/>
    </report>

</configuration>
-->

<net version="1.3" junctionCornerDetail="5" limitTurnSpeed="5.50" xmlns:xsi="http://www.w3.org/2001/XMLSchema-instance" xsi:noNamespaceSchemaLocation="http://sumo.dlr.de/xsd/net_file.xsd">

    <location netOffset="100.00,100.00" convBoundary="0.00,0.00,200.00,200.00" origBoundary="-100.00,-100.00,100.00,100.00" projParameter="!"/>

    <edge id=":center_0" function="internal">
        <lane id=":center_0_0" index="0" speed="6.51" length="9.03" shape="98.40,107.20 98.05,104.75 97.00,103.00 95.25,101.95 92.80,101.60"/>
    </edge>
    <edge id=":center_1" function="internal">
        <lane id=":center_1_0" index="0" speed="13.89" length="14.40" shape="98.40,107.20 98.40,92.80"/>
    </edge>
    <edge id=":center_2" function="internal">
        <lane id=":center_2_0" index="0" speed="8.00" length="5.93" shape="98.40,107.20 98.95,103.35 100.00,101.60"/>
    </edge>
    <edge id=":center_12" function="internal">
        <lane id=":center_12_0" index="0" speed="8.00" length="8.26" shape="100.00,101.60 100.60,100.60 103.35,98.95 107.20,98.40"/>
    </edge>
    <edge id=":center_3" function="internal">
        <lane id=":center_3_0" index="0" speed="6.51" length="9.03" shape="107.20,101.60 104.75,101.95 103.00,103.00 101.95,104.75 101.60,107.20"/>
    </edge>
    <edge id=":center_4" function="internal">
        <lane id=":center_4_0" index="0" speed="13.89" length="14.40" shape="107.20,101.60 92.80,101.60"/>
    </edge>
    <edge id=":center_5" function="internal">
        <lane id=":center_5_0" index="0" speed="8.00" length="14.19" shape="107.20,101.60 103.35,101.05 100.60,99.40 98.95,96.65 98.40,92.80"/>
    </edge>
    <edge id=":center_6" function="internal">
        <lane id=":center_6_0" index="0" speed="6.51" length="9.03" shape="101.60,92.80 101.95,95.25 103.00,97.00 104.75,98.05 107.20,98.40"/>
    </edge>
    <edge id=":center_7" function="internal">
        <lane id=":center_7_0" index="0" speed="13.89" length="14.40" shape="101.60,92.80 101.60,107.20"/>
    </edge>
    <edge id=":center_8" function="internal">
        <lane id=":center_8_0" index="0" speed="8.00" length="5.93" shape="101.60,92.80 101.05,96.65 100.00,98.40"/>
    </edge>
    <edge id=":center_13" function="internal">
        <lane id=":center_13_0" index="0" speed="8.00" length="8.26" shape="100.00,98.40 99.40,99.40 96.65,101.05 92.80,101.60"/>
    </edge>
    <edge id=":center_9" function="internal">
        <lane id=":center_9_0" index="0" speed="6.51" length="9.03" shape="92.80,98.40 95.25,98.05 97.00,97.00 98.05,95.25 98.40,92.80"/>
    </edge>
    <edge id=":center_10" function="internal">
        <lane id=":center_10_0" index="0" speed="13.89" length="14.40" shape="92.80,98.40 107.20,98.40"/>
    </edge>
    <edge id=":center_11" function="internal">
        <lane id=":center_11_0" index="0" speed="8.00" length="14.19" shape="92.80,98.40 96.65,98.95 99.40,100.60 101.05,103.35 101.60,107.20"/>
    </edge>

    <edge id="ineast" from="east" to="center" priority="-1">
        <lane id="ineast_0" index="0" speed="13.89" length="92.80" shape="200.00,101.60 107.20,101.60"/>
    </edge>
    <edge id="innorth" from="north" to="center" priority="-1">
        <lane id="innorth_0" index="0" speed="13.89" length="92.80" shape="98.40,200.00 98.40,107.20"/>
    </edge>
    <edge id="insouth" from="south" to="center" priority="-1">
        <lane id="insouth_0" index="0" speed="13.89" length="92.80" shape="101.60,0.00 101.60,92.80"/>
    </edge>
    <edge id="inwest" from="west" to="center" priority="-1">
        <lane id="inwest_0" index="0" speed="13.89" length="92.80" shape="0.00,98.40 92.80,98.40"/>
    </edge>
    <edge id="outeast" from="center" to="east" priority="-1">
        <lane id="outeast_0" index="0" speed="13.89" length="92.80" shape="107.20,98.40 200.00,98.40"/>
    </edge>
    <edge id="outnorth" from="center" to="north" priority="-1">
        <lane id="outnorth_0" index="0" speed="13.89" length="92.80" shape="101.60,107.20 101.60,200.00"/>
    </edge>
    <edge id="outsouth" from="center" to="south" priority="-1">
        <lane id="outsouth_0" index="0" speed="13.89" length="92.80" shape="98.40,92.80 98.40,0.00"/>
    </edge>
    <edge id="outwest" from="center" to="west" priority="-1">
        <lane id="outwest_0" index="0" speed="13.89" length="92.80" shape="92.80,101.60 0.00,101.60"/>
    </edge>

    <junction id="center" type="priority" x="100.00" y="100.00" incLanes="innorth_0 ineast_0 insouth_0 inwest_0" intLanes=":center_0_0 :center_1_0 :center_12_0 :center_3_0 :center_4_0 :center_5_0 :center_6_0 :center_7_0 :center_13_0 :center_9_0 :center_10_0 :center_11_0" shape="96.80,107.20 103.20,107.20 103.64,104.98 104.20,104.20 104.98,103.64 105.98,103.31 107.20,103.20 107.20,96.80 104.98,96.36 104.20,95.80 103.64,95.02 103.31,94.02 103.20,92.80 96.80,92.80 96.36,95.02 95.80,95.80 95.02,96.36 94.02,96.69 92.80,96.80 92.80,103.20 95.02,103.64 95.80,104.20 96.36,104.98 96.69,105.98">
        <request index="0"  response="000000000000" foes="000100010000" cont="0"/>
        <request index="1"  response="000000000000" foes="111100110000" cont="0"/>
        <request index="2"  response="000011000000" foes="110011110000" cont="1"/>
        <request index="3"  response="000010000000" foes="100010000000" cont="0"/>
        <request index="4"  response="000110000111" foes="100110000111" cont="0"/>
        <request index="5"  response="011110000110" foes="011110000110" cont="0"/>
        <request index="6"  response="000000000000" foes="010000000100" cont="0"/>
        <request index="7"  response="000000000000" foes="110000111100" cont="0"/>
        <request index="8"  response="000000000011" foes="110000110011" cont="1"/>
        <request index="9"  response="000000000010" foes="000000100010" cont="0"/>
        <request index="10" response="000111000110" foes="000111100110" cont="0"/>
        <request index="11" response="000110011110" foes="000110011110" cont="0"/>
    </junction>
    <junction id="east" type="dead_end" x="200.00" y="100.00" incLanes="outeast_0" intLanes="" shape="200.00,100.00 200.00,96.80 200.00,100.00"/>
    <junction id="north" type="dead_end" x="100.00" y="200.00" incLanes="outnorth_0" intLanes="" shape="100.00,200.00 103.20,200.00 100.00,200.00"/>
    <junction id="south" type="dead_end" x="100.00" y="0.00" incLanes="outsouth_0" intLanes="" shape="100.00,0.00 96.80,0.00 100.00,0.00"/>
    <junction id="west" type="dead_end" x="0.00" y="100.00" incLanes="outwest_0" intLanes="" shape="0.00,100.00 0.00,103.20 0.00,100.00"/>

    <junction id=":center_12_0" type="internal" x="100.00" y="101.60" incLanes=":center_2_0 insouth_0" intLanes=":center_4_0 :center_5_0 :center_6_0 :center_7_0 :center_10_0 :center_11_0"/>
    <junction id=":center_13_0" type="internal" x="100.00" y="98.40" incLanes=":center_8_0 innorth_0" intLanes=":center_0_0 :center_1_0 :center_4_0 :center_5_0 :center_10_0 :center_11_0"/>

    <connection from="ineast" to="outnorth" fromLane="0" toLane="0" via=":center_3_0" dir="r" state="m"/>
    <connection from="ineast" to="outwest" fromLane="0" toLane="0" via=":center_4_0" dir="s" state="m"/>
    <connection from="ineast" to="outsouth" fromLane="0" toLane="0" via=":center_5_0" dir="l" state="m"/>
    <connection from="innorth" to="outwest" fromLane="0" toLane="0" via=":center_0_0" dir="r" state="M"/>
    <connection from="innorth" to="outsouth" fromLane="0" toLane="0" via=":center_1_0" dir="s" state="M"/>
    <connection from="innorth" to="outeast" fromLane="0" toLane="0" via=":center_2_0" dir="l" state="m"/>
    <connection from="insouth" to="outeast" fromLane="0" toLane="0" via=":center_6_0" dir="r" state="M"/>
    <connection from="insouth" to="outnorth" fromLane="0" toLane="0" via=":center_7_0" dir="s" state="M"/>
    <connection from="insouth" to="outwest" fromLane="0" toLane="0" via=":center_8_0" dir="l" state="m"/>
    <connection from="inwest" to="outsouth" fromLane="0" toLane="0" via=":center_9_0" dir="r" state="m"/>
    <connection from="inwest" to="outeast" fromLane="0" toLane="0" via=":center_10_0" dir="s" state="m"/>
    <connection from="inwest" to="outnorth" fromLane="0" toLane="0" via=":center_11_0" dir="l" state="m"/>

    <connection from=":center_0" to="outwest" fromLane="0" toLane="0" dir="r" state="M"/>
    <connection from=":center_1" to="outsouth" fromLane="0" toLane="0" dir="s" state="M"/>
    <connection from=":center_2" to="outeast" fromLane="0" toLane="0" via=":center_12_0" dir="l" state="m"/>
    <connection from=":center_12" to="outeast" fromLane="0" toLane="0" dir="l" state="M"/>
    <connection from=":center_3" to="outnorth" fromLane="0" toLane="0" dir="r" state="M"/>
    <connection from=":center_4" to="outwest" fromLane="0" toLane="0" dir="s" state="M"/>
    <connection from=":center_5" to="outsouth" fromLane="0" toLane="0" dir="l" state="M"/>
    <connection from=":center_6" to="outeast" fromLane="0" toLane="0" dir="r" state="M"/>
    <connection from=":center_7" to="outnorth" fromLane="0" toLane="0" dir="s" state="M"/>
    <connection from=":center_8" to="outwest" fromLane="0" toLane="0" via=":center_13_0" dir="l" state="m"/>
    <connection from=":center_13" to="outwest" fromLane="0" toLane="0" dir="l" state="M"/>
    <connection from=":center_9" to="outsouth" fromLane="0" toLane="0" dir="r" state="M"/>
    <connection from=":center_10" to="outeast" fromLane="0" toLane="0" dir="s" state="M"/>
    <connection from=":center_11" to="outnorth" fromLane="0" toLane="0" dir="l" state="M"/>

</net>
