<nodes>
  <node id="center" x="0.0" y="0.0" />
  <node id="east" x="100.0" y="0.0" />
  <node id="north" x="0.0" y="100.0" />
  <node id="west" x="-100.0" y="0.0" />
  <node id="south" x="0.0" y="-100.0" />
</nodes>
