<configuration xmlns:xsi="http://www.w3.org/2001/XMLSchema-instance" xsi:noNamespaceSchemaLocation="http://sumo.dlr.de/xsd/sumoConfiguration.xsd">
  <input>
    <net-file value="carrefour-feux.net.xml"/>
    <route-files value="carrefour.rou.xml"/>
  </input>
  
  <time>
    <begin value="0"/>
    <end value="1800"/>
    <step-length value="0.1"/>
  </time>
  
  <random>
    <seed value="45"/>
  </random>
</configuration>