<?xml version="1.0" encoding="UTF-8"?>

<!-- generated on Fri 22 Mar 2019 04:50:15 PM EDT by Netedit Version 0.32.0
<?xml version="1.0" encoding="UTF-8"?>

<configuration xmlns:xsi="http://www.w3.org/2001/XMLSchema-instance" xsi:noNamespaceSchemaLocation="http://sumo.dlr.de/xsd/netconvertConfiguration.xsd">

    <input>
        <sumo-net-file value="carrefour-sans-feux.net.xml"/>
    </input>

    <output>
        <output-file value="carrefour-sans-feux.net.xml"/>
    </output>

    <processing>
        <no-turnarounds value="true"/>
        <offset.disable-normalization value="true"/>
        <lefthand value="false"/>
        <junctions.corner-detail value="0"/>
        <rectangular-lane-cut value="false"/>
        <walkingareas value="false"/>
    </processing>

    <visualisation>
        <registry-viewport value="true"/>
    </visualisation>

</configuration>
-->

<net version="0.27" xmlns:xsi="http://www.w3.org/2001/XMLSchema-instance" xsi:noNamespaceSchemaLocation="http://sumo.dlr.de/xsd/net_file.xsd">

    <location netOffset="0.00,0.00" convBoundary="-46.17,4.05,103.30,126.64" origBoundary="-10000000000.00,-10000000000.00,10000000000.00,10000000000.00" projParameter="!"/>

    <edge id=":gneJ1_0" function="internal">
        <lane id=":gneJ1_0_0" index="0" speed="13.89" length="10.83" shape="33.48,65.33 30.54,65.78 28.43,67.05 27.16,69.14 26.73,72.06"/>
    </edge>
    <edge id=":gneJ1_1" function="internal">
        <lane id=":gneJ1_1_0" index="0" speed="13.89" length="16.63" shape="33.48,65.33 16.85,65.45"/>
    </edge>
    <edge id=":gneJ1_2" function="internal">
        <lane id=":gneJ1_2_0" index="0" speed="13.89" length="16.06" shape="33.48,65.33 29.10,64.75 25.99,62.90 24.16,59.79 23.60,55.41"/>
    </edge>
    <edge id=":gneJ1_3" function="internal">
        <lane id=":gneJ1_3_0" index="0" speed="13.89" length="10.63" shape="26.90,55.46 27.27,58.36 28.48,60.42 30.54,61.65 33.44,62.03"/>
    </edge>
    <edge id=":gneJ1_4" function="internal">
        <lane id=":gneJ1_4_0" index="0" speed="13.89" length="16.60" shape="26.90,55.46 26.73,72.06"/>
    </edge>
    <edge id=":gneJ1_5" function="internal">
        <lane id=":gneJ1_5_0" index="0" speed="13.89" length="16.10" shape="26.90,55.46 26.21,59.82 24.31,62.93 21.19,64.81 16.85,65.45"/>
    </edge>
    <edge id=":gneJ1_6" function="internal">
        <lane id=":gneJ1_6_0" index="0" speed="13.89" length="10.85" shape="16.83,62.15 19.75,61.72 21.86,60.45 23.14,58.35 23.60,55.41"/>
    </edge>
    <edge id=":gneJ1_7" function="internal">
        <lane id=":gneJ1_7_0" index="0" speed="13.89" length="16.61" shape="16.83,62.15 33.44,62.03"/>
    </edge>
    <edge id=":gneJ1_8" function="internal">
        <lane id=":gneJ1_8_0" index="0" speed="13.89" length="16.00" shape="16.83,62.15 21.18,62.76 24.28,64.61 26.13,67.71 26.73,72.06"/>
    </edge>
    <edge id=":gneJ1_9" function="internal">
        <lane id=":gneJ1_9_0" index="0" speed="13.89" length="10.64" shape="23.43,72.04 23.03,69.15 21.80,67.09 19.74,65.86 16.85,65.45"/>
    </edge>
    <edge id=":gneJ1_10" function="internal">
        <lane id=":gneJ1_10_0" index="0" speed="13.89" length="16.64" shape="23.43,72.04 23.60,55.41"/>
    </edge>
    <edge id=":gneJ1_11" function="internal">
        <lane id=":gneJ1_11_0" index="0" speed="13.89" length="16.09" shape="23.43,72.04 24.07,67.70 25.96,64.59 29.08,62.70 33.44,62.03"/>
    </edge>

    <edge id="-gneE0" from="gneJ1" to="gneJ0" priority="1">
        <lane id="-gneE0_0" index="0" speed="13.89" length="63.01" shape="16.85,65.45 -46.16,65.71"/>
    </edge>
    <edge id="-gneE1" from="gneJ1" to="gneJ2" priority="1">
        <lane id="-gneE1_0" index="0" speed="13.89" length="51.39" shape="23.60,55.41 24.42,4.02"/>
    </edge>
    <edge id="-gneE2" from="gneJ1" to="gneJ3" priority="1">
        <lane id="-gneE2_0" index="0" speed="13.89" length="69.85" shape="33.44,62.03 103.28,61.28"/>
    </edge>
    <edge id="-gneE3" from="gneJ1" to="gneJ4" priority="1">
        <lane id="-gneE3_0" index="0" speed="13.89" length="54.59" shape="26.73,72.06 26.43,126.65"/>
    </edge>
    <edge id="gneE0" from="gneJ0" to="gneJ1" priority="1">
        <lane id="gneE0_0" index="0" speed="13.89" length="63.01" shape="-46.18,62.41 16.83,62.15"/>
    </edge>
    <edge id="gneE1" from="gneJ2" to="gneJ1" priority="1">
        <lane id="gneE1_0" index="0" speed="13.89" length="51.39" shape="27.72,4.08 26.90,55.46"/>
    </edge>
    <edge id="gneE2" from="gneJ3" to="gneJ1" priority="1">
        <lane id="gneE2_0" index="0" speed="13.89" length="69.85" shape="103.32,64.58 33.48,65.33"/>
    </edge>
    <edge id="gneE3" from="gneJ4" to="gneJ1" priority="1">
        <lane id="gneE3_0" index="0" speed="13.89" length="54.59" shape="23.13,126.63 23.43,72.04"/>
    </edge>

    <junction id="gneJ0" type="dead_end" x="-46.17" y="64.06" incLanes="-gneE0_0" intLanes="" shape="-46.17,64.01 -46.16,67.31 -46.17,64.11"/>
    <junction id="gneJ1" type="allway_stop" x="25.12" y="63.77" incLanes="gneE2_0 gneE1_0 gneE0_0 gneE3_0" intLanes=":gneJ1_0_0 :gneJ1_1_0 :gneJ1_2_0 :gneJ1_3_0 :gneJ1_4_0 :gneJ1_5_0 :gneJ1_6_0 :gneJ1_7_0 :gneJ1_8_0 :gneJ1_9_0 :gneJ1_10_0 :gneJ1_11_0" shape="33.49,66.93 33.42,60.43 28.50,55.48 22.00,55.38 16.83,60.55 16.85,67.05 21.83,72.03 28.33,72.07" radius="5.00">
        <request index="0" response="000100010000" foes="000100010000" cont="0"/>
        <request index="1" response="111100110000" foes="111100110000" cont="0"/>
        <request index="2" response="110011110000" foes="110011110000" cont="0"/>
        <request index="3" response="100010000000" foes="100010000000" cont="0"/>
        <request index="4" response="100110000111" foes="100110000111" cont="0"/>
        <request index="5" response="011110000110" foes="011110000110" cont="0"/>
        <request index="6" response="010000000100" foes="010000000100" cont="0"/>
        <request index="7" response="110000111100" foes="110000111100" cont="0"/>
        <request index="8" response="110000110011" foes="110000110011" cont="0"/>
        <request index="9" response="000000100010" foes="000000100010" cont="0"/>
        <request index="10" response="000111100110" foes="000111100110" cont="0"/>
        <request index="11" response="000110011110" foes="000110011110" cont="0"/>
    </junction>
    <junction id="gneJ2" type="dead_end" x="26.07" y="4.05" incLanes="-gneE1_0" intLanes="" shape="26.12,4.05 22.82,4.00 26.02,4.05"/>
    <junction id="gneJ3" type="dead_end" x="103.30" y="62.93" incLanes="-gneE2_0" intLanes="" shape="103.30,62.98 103.27,59.68 103.30,62.88"/>
    <junction id="gneJ4" type="dead_end" x="24.78" y="126.64" incLanes="-gneE3_0" intLanes="" shape="24.73,126.64 28.03,126.66 24.83,126.64"/>

    <connection from="gneE0" to="-gneE1" fromLane="0" toLane="0" via=":gneJ1_6_0" dir="r" state="w"/>
    <connection from="gneE0" to="-gneE2" fromLane="0" toLane="0" via=":gneJ1_7_0" dir="s" state="w"/>
    <connection from="gneE0" to="-gneE3" fromLane="0" toLane="0" via=":gneJ1_8_0" dir="l" state="w"/>
    <connection from="gneE1" to="-gneE2" fromLane="0" toLane="0" via=":gneJ1_3_0" dir="r" state="w"/>
    <connection from="gneE1" to="-gneE3" fromLane="0" toLane="0" via=":gneJ1_4_0" dir="s" state="w"/>
    <connection from="gneE1" to="-gneE0" fromLane="0" toLane="0" via=":gneJ1_5_0" dir="l" state="w"/>
    <connection from="gneE2" to="-gneE3" fromLane="0" toLane="0" via=":gneJ1_0_0" dir="r" state="w"/>
    <connection from="gneE2" to="-gneE0" fromLane="0" toLane="0" via=":gneJ1_1_0" dir="s" state="w"/>
    <connection from="gneE2" to="-gneE1" fromLane="0" toLane="0" via=":gneJ1_2_0" dir="l" state="w"/>
    <connection from="gneE3" to="-gneE0" fromLane="0" toLane="0" via=":gneJ1_9_0" dir="r" state="w"/>
    <connection from="gneE3" to="-gneE1" fromLane="0" toLane="0" via=":gneJ1_10_0" dir="s" state="w"/>
    <connection from="gneE3" to="-gneE2" fromLane="0" toLane="0" via=":gneJ1_11_0" dir="l" state="w"/>

    <connection from=":gneJ1_0" to="-gneE3" fromLane="0" toLane="0" dir="r" state="M"/>
    <connection from=":gneJ1_1" to="-gneE0" fromLane="0" toLane="0" dir="s" state="M"/>
    <connection from=":gneJ1_2" to="-gneE1" fromLane="0" toLane="0" dir="l" state="M"/>
    <connection from=":gneJ1_3" to="-gneE2" fromLane="0" toLane="0" dir="r" state="M"/>
    <connection from=":gneJ1_4" to="-gneE3" fromLane="0" toLane="0" dir="s" state="M"/>
    <connection from=":gneJ1_5" to="-gneE0" fromLane="0" toLane="0" dir="l" state="M"/>
    <connection from=":gneJ1_6" to="-gneE1" fromLane="0" toLane="0" dir="r" state="M"/>
    <connection from=":gneJ1_7" to="-gneE2" fromLane="0" toLane="0" dir="s" state="M"/>
    <connection from=":gneJ1_8" to="-gneE3" fromLane="0" toLane="0" dir="l" state="M"/>
    <connection from=":gneJ1_9" to="-gneE0" fromLane="0" toLane="0" dir="r" state="M"/>
    <connection from=":gneJ1_10" to="-gneE1" fromLane="0" toLane="0" dir="s" state="M"/>
    <connection from=":gneJ1_11" to="-gneE2" fromLane="0" toLane="0" dir="l" state="M"/>

</net>
