<routes>
  <route id="route0" edges="1to2 2to3"/>
  <vehicle id="0" route="route0" depart="0" color="red"/>
  <vehicle id="1" route="route0" depart="0" color="blue"/>
</routes>
