<configuration xmlns:xsi="http://www.w3.org/2001/XMLSchema-instance" xsi:noNamespaceSchemaLocation="http://sumo.dlr.de/xsd/sumoConfiguration.xsd">
  <input>
    <net-file value="hello.net.xml"/>
    <route-files value="hello.rou.xml"/>
  </input>
  
  <time>
    <begin value="0"/>
    <end value="600"/>
    <step-length value="0.1"/>
  </time>
  
  <random>
    <seed value="45"/>
  </random>

  <gui_only>
    <gui-settings-file value="hello.settings.xml"/>
  </gui_only>
</configuration>
