<configuration>
    <input>
        <net-file value="route.net.xml"/>
        <route-files value="route.trips.xml"/>
    </input>
    <time>
        <begin value="0"/>
        <end value="1000"/>
	<step-length value="0.1"/>
    </time>
 <random>
    <seed value="42"/>
  </random>
 </configuration>
